Circuit: * C:\Users\duodi\Documents\Personnel\electronique\projet-ouah\passe-bande-butterworth-77500Hz.ASC

.OP point found by inspection.

Date: Sun Jul 23 20:59:15 2023
Total elapsed time: 0.044 seconds.

tnom = 27
temp = 27
method = trap
totiter = 0
traniter = 0
tranpoints = 0
accept = 0
rejected = 0
matrix size = 6
fillins = 0
solver = Normal
Avg thread counts: 4.0/0.0/0.0/3.8
Matrix Compiler1:      13 opcodes
Matrix Compiler2:      33 opcodes
